Redirecting stdout and stderr to /home/apollon/APOLLON/cgem5/node2/simout
gem5 Simulator System.  http://gem5.org
gem5 is copyrighted software; use the --copyright option for details.

gem5 compiled Mar  5 2020 02:41:06
gem5 started Mar 10 2020 05:58:43
gem5 executing on ubuntu, pid 8370
command line: /home/apollon/APOLLON/cgem5/build/ARM/gem5.opt --listener-mode=on -r -d /home/apollon/APOLLON/cgem5/node2 /home/apollon/APOLLON/cgem5/configs/example/fs.py --kernel=vmlinux.aarch32.ll_20131205.0-gem5 --disk-image=linux-aarch32-ael.img --mem-size=512MB --SynchTime=10ms --RxPacketTime=10ms --TotalNodes=4 --nodeNum=2 --machine-type=VExpress_EMM --dtb=vexpress.aarch32.ll_20131205.0-gem5.1cpu.dtb --script=/home/apollon/APOLLON/cgem5/configs/boot/COSSIM/script2.rcS --mcpat-xml=ARM_AtomicSimpleCPU_template.xml --cossim

Global frequency set at 1000000000000 ticks per second

1. COSSIM_PROC_NET_NODE2
HLA_GEM5 Note : FederationExecutionAlreadyExists Reason is : COSSIM_PROC_NET_NODE2. OK I can join it
announceSynchronizationPoint

2. GEM5_NODE2
HLA_GEM5 Note : FederationExecutionAlreadyExists Reason is : GLOBAL_SYNCHRONIZATION. OK I can join it
announceSynchronizationPoint
warn: DRAM device capacity (8192 Mbytes) does not match the address range assigned (512 Mbytes)
info: kernel located at: /home/apollon/APOLLON/kernels/binaries/vmlinux.aarch32.ll_20131205.0-gem5
Listening for testsys connection on port 5900
Listening for testsys connection on port 3002
0: testsys.remote_gdb.listener: listening for remote gdb #0 on port 7000
info: Using bootloader at address 0x10
info: Using kernel entry physical address at 0x80008000
info: Loading DTB file: /home/apollon/APOLLON/kernels/binaries/vexpress.aarch32.ll_20131205.0-gem5.1cpu.dtb at address 0x88000000
**** REAL SIMULATION ****
warn: Existing EnergyCtrl, but no enabled DVFSHandler found.
info: Entering event queue @ 0.  Starting simulation...
warn: Not doing anything for miscreg ACTLR
warn: Not doing anything for write of miscreg ACTLR
warn: The clidr register always reports 0 caches.
warn: clidr LoUIS field of 0b001 to match current ARM implementations.
warn: The csselr register isn't implemented.
warn: 	instruction 'mcr dccmvau' unimplemented
warn: 	instruction 'mcr icimvau' unimplemented
warn: 	instruction 'mcr bpiallis' unimplemented
warn: 	instruction 'mcr icialluis' unimplemented
warn: 	instruction 'mcr dccimvac' unimplemented
warn: Tried to read RealView I/O at offset 0x60 that doesn't exist
6662812000: testsys.terminal: attach terminal 0
warn: Tried to write RVIO at offset 0xa8 (data 0) that doesn't exist
warn: Tried to write RVIO at offset 0xa8 (data 0) that doesn't exist
warn: Tried to write RVIO at offset 0xa8 (data 0) that doesn't exist
warn: Tried to write RVIO at offset 0xa8 (data 0) that doesn't exist
warn: Tried to write RVIO at offset 0xa8 (data 0) that doesn't exist
warn: Tried to write RVIO at offset 0xa8 (data 0) that doesn't exist
warn: Tried to write RVIO at offset 0xa8 (data 0) that doesn't exist
warn: Tried to write RVIO at offset 0xa8 (data 0) that doesn't exist
warn: Tried to write RVIO at offset 0xa8 (data 0) that doesn't exist
info: trap check M:0 N:0 1:0 2:0 hdcr 0, hcptr 3fff, hstr 0
info: trap check M:0 N:0 1:0 2:0 hdcr 0, hcptr 3fff, hstr 0
info: trap check M:0 N:0 1:0 2:0 hdcr 0, hcptr 3fff, hstr 0
info: trap check M:0 N:0 1:0 2:0 hdcr 0, hcptr 3fff, hstr 0
info: trap check M:0 N:0 1:0 2:0 hdcr 0, hcptr 3fff, hstr 0
info: trap check M:0 N:0 1:0 2:0 hdcr 0, hcptr 3fff, hstr 0
info: trap check M:0 N:0 1:0 2:0 hdcr 0, hcptr 3fff, hstr 0
info: trap check M:0 N:0 1:0 2:0 hdcr 0, hcptr 3fff, hstr 0
info: trap check M:0 N:0 1:0 2:0 hdcr 0, hcptr 3fff, hstr 0
info: trap check M:0 N:0 1:0 2:0 hdcr 0, hcptr 3fff, hstr 0
info: trap check M:0 N:0 1:0 2:0 hdcr 0, hcptr 3fff, hstr 0
info: trap check M:0 N:0 1:0 2:0 hdcr 0, hcptr 3fff, hstr 0
info: trap check M:0 N:0 1:0 2:0 hdcr 0, hcptr 3fff, hstr 0
info: trap check M:0 N:0 1:0 2:0 hdcr 0, hcptr 3fff, hstr 0
info: trap check M:0 N:0 1:0 2:0 hdcr 0, hcptr 3fff, hstr 0
warn: CP14 unimplemented crn[1], opc1[0], crm[3], opc2[4]
warn: CP14 unimplemented crn[1], opc1[0], crm[0], opc2[4]
warn: CP14 unimplemented crn[0], opc1[0], crm[7], opc2[0]
warn: Returning zero for read from miscreg pmcr
warn: Ignoring write to miscreg pmcntenclr
warn: Ignoring write to miscreg pmintenclr
warn: Ignoring write to miscreg pmovsr
warn: Ignoring write to miscreg pmcr
Exiting @ tick 26570481028000 because m5_exit instruction encountered
Power results are calculated with xml file: ARM_AtomicSimpleCPU_template.xml

/home/apollon/APOLLON/cgem5/runMcPat.sh: 25: [: -eq: unexpected operator
/home/apollon/APOLLON/cgem5/runMcPat.sh: 25: [: -eq: unexpected operator
/home/apollon/APOLLON/cgem5/runMcPat.sh: 25: [: -eq: unexpected operator
/home/apollon/APOLLON/cgem5/runMcPat.sh: 25: [: -eq: unexpected operator
/home/apollon/APOLLON/cgem5/runMcPat.sh: 25: [: -eq: unexpected operator
/home/apollon/APOLLON/cgem5/runMcPat.sh: 32: [: -eq: unexpected operator
Reading GEM5 stats from: /home/apollon/APOLLON/cgem5/node2/stats.txt
	Warning (stats): testsys.mem_ctrls.avgQLat is nan. Setting it to 0
	Warning (stats): testsys.mem_ctrls.avgBusLat is nan. Setting it to 0
	Warning (stats): testsys.mem_ctrls.avgMemAccLat is nan. Setting it to 0
	Warning (stats): testsys.mem_ctrls.readRowHitRate is nan. Setting it to 0
	Warning (stats): testsys.mem_ctrls.writeRowHitRate is nan. Setting it to 0
	Warning (stats): testsys.mem_ctrls.avgGap is nan. Setting it to 0
	Warning (stats): testsys.mem_ctrls.pageHitRate is nan. Setting it to 0
Reading config from: /home/apollon/APOLLON/cgem5/node2/config.json
Reading McPAT template from: /home/apollon/APOLLON/cgem5/McPat/mcpat/ProcessorDescriptionFiles/ARM_AtomicSimpleCPU_template.xml
Writing input to McPAT in: /home/apollon/APOLLON/cgem5/McPat/mcpatNode2.xml
Cache size must >=64
Cache size must >=64
Cache size must >=64
RTIA:: RTIA has thrown NetworkError exception.
RTIA:: Reason: Connection closed by client.

RTIA: Statistics (processed messages)
List of federate initiated services 
--------------------------------------------------
       1 Message::OPEN_CONNEXION (MSG#1)
       1 Message::RESIGN_FEDERATION_EXECUTION (MSG#6)
       1 Message::SYNCHRONIZATION_POINT_ACHIEVED (MSG#11)
       1 Message::PUBLISH_INTERACTION_CLASS (MSG#31)
       1 Message::SUBSCRIBE_INTERACTION_CLASS (MSG#35)
       9 Message::SEND_INTERACTION (MSG#45)
    2666 Message::QUERY_FEDERATE_TIME (MSG#86)
    2666 Message::TIME_ADVANCE_REQUEST (MSG#92)
       2 Message::GET_INTERACTION_CLASS_HANDLE (MSG#117)
       4 Message::GET_PARAMETER_HANDLE (MSG#119)
    2690 Message::TICK_REQUEST (MSG#142)
    2668 Message::TICK_REQUEST_NEXT (MSG#143)
       1 Message::JOIN_FEDERATION_EXECUTION_V4 (MSG#149)

List of RTI initiated services 
--------------------------------------------------
       1 NetworkMessage::Type::ANNOUNCE_SYNCHRONIZATION_POINT (MSG#14)
       1 NetworkMessage::Type::FEDERATION_SYNCHRONIZED (MSG#16)

 Number of Federate messages : 10711
 Number of RTIG messages : 2
 TCP Socket  3 : total =      1605 Bytes sent 
 TCP Socket  3 : total =      1141 Bytes received
 UDP Socket  4 : total =         0 Bytes sent 
 UDP Socket  4 : total =         0 Bytes received
RTIA:: RTIA has thrown NetworkError exception.
RTIA:: Reason: Connection closed by client.

RTIA: Statistics (processed messages)
List of federate initiated services 
--------------------------------------------------
       1 Message::OPEN_CONNEXION (MSG#1)
       1 Message::RESIGN_FEDERATION_EXECUTION (MSG#6)
       1 Message::SYNCHRONIZATION_POINT_ACHIEVED (MSG#11)
       1 Message::PUBLISH_INTERACTION_CLASS (MSG#31)
       1 Message::SUBSCRIBE_INTERACTION_CLASS (MSG#35)
       1 Message::ENABLE_TIME_REGULATION (MSG#81)
       1 Message::DISABLE_TIME_REGULATION (MSG#82)
       1 Message::ENABLE_TIME_CONSTRAINED (MSG#83)
       1 Message::DISABLE_TIME_CONSTRAINED (MSG#84)
    2658 Message::QUERY_FEDERATE_TIME (MSG#86)
    2657 Message::TIME_ADVANCE_REQUEST (MSG#92)
       2 Message::GET_INTERACTION_CLASS_HANDLE (MSG#117)
       4 Message::GET_PARAMETER_HANDLE (MSG#119)
    3398 Message::TICK_REQUEST (MSG#142)
    2661 Message::TICK_REQUEST_NEXT (MSG#143)
       1 Message::JOIN_FEDERATION_EXECUTION_V4 (MSG#149)

List of RTI initiated services 
--------------------------------------------------
   10632 NetworkMessage::Type::MESSAGE_NULL (MSG#2)
       1 NetworkMessage::Type::ADDITIONAL_FOM_MODULE (MSG#6)
       3 NetworkMessage::Type::SET_TIME_REGULATING (MSG#8)
       1 NetworkMessage::Type::TIME_REGULATION_ENABLED (MSG#10)
       1 NetworkMessage::Type::TIME_CONSTRAINED_ENABLED (MSG#11)
       1 NetworkMessage::Type::ANNOUNCE_SYNCHRONIZATION_POINT (MSG#14)
       1 NetworkMessage::Type::FEDERATION_SYNCHRONIZED (MSG#16)

 Number of Federate messages : 11390
 Number of RTIG messages : 10640
 TCP Socket  3 : total =     85452 Bytes sent 
 TCP Socket  3 : total =    341688 Bytes received
 UDP Socket  4 : total =         0 Bytes sent 
 UDP Socket  4 : total =         0 Bytes received
