
---------- Begin Simulation Statistics ----------
sim_seconds                                 23.760180                       # Number of seconds simulated
sim_ticks                                23760179821500                       # Number of ticks simulated
final_tick                               26570481028000                       # Number of ticks from beginning of simulation (restored from checkpoints and never reset)
sim_freq                                 1000000000000                       # Frequency of simulated ticks
host_inst_rate                                1165498                       # Simulator instruction rate (inst/s)
host_op_rate                                  1427873                       # Simulator op (including micro ops) rate (op/s)
host_tick_rate                           139163504110                       # Simulator tick rate (ticks/s)
host_mem_usage                                 896948                       # Number of bytes of host memory used
host_seconds                                   170.74                       # Real time elapsed on the host
sim_insts                                   198991977                       # Number of instructions simulated
sim_ops                                     243788834                       # Number of ops (including micro ops) simulated
testsys.voltage_domain.voltage                      1                       # Voltage in Volts
testsys.clk_domain.clock                         1000                       # Clock period in ticks
testsys.mem_ctrls.pwrStateResidencyTicks::UNDEFINED 26570481028000                       # Cumulative time (in ticks) in various power states
testsys.mem_ctrls.bytes_read::cpu.dtb.walker        16400                       # Number of bytes read from this memory
testsys.mem_ctrls.bytes_read::cpu.itb.walker         6216                       # Number of bytes read from this memory
testsys.mem_ctrls.bytes_read::cpu.inst       49748236                       # Number of bytes read from this memory
testsys.mem_ctrls.bytes_read::cpu.data       12776149                       # Number of bytes read from this memory
testsys.mem_ctrls.bytes_read::realview.ethernet          776                       # Number of bytes read from this memory
testsys.mem_ctrls.bytes_read::realview.ide        40248                       # Number of bytes read from this memory
testsys.mem_ctrls.bytes_read::total          62588025                       # Number of bytes read from this memory
testsys.mem_ctrls.bytes_inst_read::cpu.inst     49748236                       # Number of instructions bytes read from this memory
testsys.mem_ctrls.bytes_inst_read::total     49748236                       # Number of instructions bytes read from this memory
testsys.mem_ctrls.bytes_written::cpu.data      7182673                       # Number of bytes written to this memory
testsys.mem_ctrls.bytes_written::realview.ethernet          128                       # Number of bytes written to this memory
testsys.mem_ctrls.bytes_written::realview.ide         7168                       # Number of bytes written to this memory
testsys.mem_ctrls.bytes_written::total        7189969                       # Number of bytes written to this memory
testsys.mem_ctrls.num_reads::cpu.dtb.walker         4100                       # Number of read requests responded to by this memory
testsys.mem_ctrls.num_reads::cpu.itb.walker         1554                       # Number of read requests responded to by this memory
testsys.mem_ctrls.num_reads::cpu.inst        12437059                       # Number of read requests responded to by this memory
testsys.mem_ctrls.num_reads::cpu.data         2738761                       # Number of read requests responded to by this memory
testsys.mem_ctrls.num_reads::realview.ethernet           24                       # Number of read requests responded to by this memory
testsys.mem_ctrls.num_reads::realview.ide          663                       # Number of read requests responded to by this memory
testsys.mem_ctrls.num_reads::total           15182161                       # Number of read requests responded to by this memory
testsys.mem_ctrls.num_writes::cpu.data        1791033                       # Number of write requests responded to by this memory
testsys.mem_ctrls.num_writes::realview.ethernet            8                       # Number of write requests responded to by this memory
testsys.mem_ctrls.num_writes::realview.ide          112                       # Number of write requests responded to by this memory
testsys.mem_ctrls.num_writes::total           1791153                       # Number of write requests responded to by this memory
testsys.mem_ctrls.bw_read::cpu.dtb.walker          690                       # Total read bandwidth from this memory (bytes/s)
testsys.mem_ctrls.bw_read::cpu.itb.walker          262                       # Total read bandwidth from this memory (bytes/s)
testsys.mem_ctrls.bw_read::cpu.inst           2093765                       # Total read bandwidth from this memory (bytes/s)
testsys.mem_ctrls.bw_read::cpu.data            537713                       # Total read bandwidth from this memory (bytes/s)
testsys.mem_ctrls.bw_read::realview.ethernet           33                       # Total read bandwidth from this memory (bytes/s)
testsys.mem_ctrls.bw_read::realview.ide          1694                       # Total read bandwidth from this memory (bytes/s)
testsys.mem_ctrls.bw_read::total              2634156                       # Total read bandwidth from this memory (bytes/s)
testsys.mem_ctrls.bw_inst_read::cpu.inst      2093765                       # Instruction read bandwidth from this memory (bytes/s)
testsys.mem_ctrls.bw_inst_read::total         2093765                       # Instruction read bandwidth from this memory (bytes/s)
testsys.mem_ctrls.bw_write::cpu.data           302299                       # Write bandwidth from this memory (bytes/s)
testsys.mem_ctrls.bw_write::realview.ethernet            5                       # Write bandwidth from this memory (bytes/s)
testsys.mem_ctrls.bw_write::realview.ide          302                       # Write bandwidth from this memory (bytes/s)
testsys.mem_ctrls.bw_write::total              302606                       # Write bandwidth from this memory (bytes/s)
testsys.mem_ctrls.bw_total::cpu.dtb.walker          690                       # Total bandwidth to/from this memory (bytes/s)
testsys.mem_ctrls.bw_total::cpu.itb.walker          262                       # Total bandwidth to/from this memory (bytes/s)
testsys.mem_ctrls.bw_total::cpu.inst          2093765                       # Total bandwidth to/from this memory (bytes/s)
testsys.mem_ctrls.bw_total::cpu.data           840011                       # Total bandwidth to/from this memory (bytes/s)
testsys.mem_ctrls.bw_total::realview.ethernet           38                       # Total bandwidth to/from this memory (bytes/s)
testsys.mem_ctrls.bw_total::realview.ide         1996                       # Total bandwidth to/from this memory (bytes/s)
testsys.mem_ctrls.bw_total::total             2936762                       # Total bandwidth to/from this memory (bytes/s)
testsys.mem_ctrls.readReqs                          0                       # Number of read requests accepted
testsys.mem_ctrls.writeReqs                         0                       # Number of write requests accepted
testsys.mem_ctrls.readBursts                        0                       # Number of DRAM read bursts, including those serviced by the write queue
testsys.mem_ctrls.writeBursts                       0                       # Number of DRAM write bursts, including those merged in the write queue
testsys.mem_ctrls.bytesReadDRAM                     0                       # Total number of bytes read from DRAM
testsys.mem_ctrls.bytesReadWrQ                      0                       # Total number of bytes read from write queue
testsys.mem_ctrls.bytesWritten                      0                       # Total number of bytes written to DRAM
testsys.mem_ctrls.bytesReadSys                      0                       # Total read bytes from the system interface side
testsys.mem_ctrls.bytesWrittenSys                   0                       # Total written bytes from the system interface side
testsys.mem_ctrls.servicedByWrQ                     0                       # Number of DRAM read bursts serviced by the write queue
testsys.mem_ctrls.mergedWrBursts                    0                       # Number of DRAM write bursts merged with an existing one
testsys.mem_ctrls.neitherReadNorWriteReqs            0                       # Number of requests that are neither read nor write
testsys.mem_ctrls.perBankRdBursts::0                0                       # Per bank write bursts
testsys.mem_ctrls.perBankRdBursts::1                0                       # Per bank write bursts
testsys.mem_ctrls.perBankRdBursts::2                0                       # Per bank write bursts
testsys.mem_ctrls.perBankRdBursts::3                0                       # Per bank write bursts
testsys.mem_ctrls.perBankRdBursts::4                0                       # Per bank write bursts
testsys.mem_ctrls.perBankRdBursts::5                0                       # Per bank write bursts
testsys.mem_ctrls.perBankRdBursts::6                0                       # Per bank write bursts
testsys.mem_ctrls.perBankRdBursts::7                0                       # Per bank write bursts
testsys.mem_ctrls.perBankRdBursts::8                0                       # Per bank write bursts
testsys.mem_ctrls.perBankRdBursts::9                0                       # Per bank write bursts
testsys.mem_ctrls.perBankRdBursts::10               0                       # Per bank write bursts
testsys.mem_ctrls.perBankRdBursts::11               0                       # Per bank write bursts
testsys.mem_ctrls.perBankRdBursts::12               0                       # Per bank write bursts
testsys.mem_ctrls.perBankRdBursts::13               0                       # Per bank write bursts
testsys.mem_ctrls.perBankRdBursts::14               0                       # Per bank write bursts
testsys.mem_ctrls.perBankRdBursts::15               0                       # Per bank write bursts
testsys.mem_ctrls.perBankWrBursts::0                0                       # Per bank write bursts
testsys.mem_ctrls.perBankWrBursts::1                0                       # Per bank write bursts
testsys.mem_ctrls.perBankWrBursts::2                0                       # Per bank write bursts
testsys.mem_ctrls.perBankWrBursts::3                0                       # Per bank write bursts
testsys.mem_ctrls.perBankWrBursts::4                0                       # Per bank write bursts
testsys.mem_ctrls.perBankWrBursts::5                0                       # Per bank write bursts
testsys.mem_ctrls.perBankWrBursts::6                0                       # Per bank write bursts
testsys.mem_ctrls.perBankWrBursts::7                0                       # Per bank write bursts
testsys.mem_ctrls.perBankWrBursts::8                0                       # Per bank write bursts
testsys.mem_ctrls.perBankWrBursts::9                0                       # Per bank write bursts
testsys.mem_ctrls.perBankWrBursts::10               0                       # Per bank write bursts
testsys.mem_ctrls.perBankWrBursts::11               0                       # Per bank write bursts
testsys.mem_ctrls.perBankWrBursts::12               0                       # Per bank write bursts
testsys.mem_ctrls.perBankWrBursts::13               0                       # Per bank write bursts
testsys.mem_ctrls.perBankWrBursts::14               0                       # Per bank write bursts
testsys.mem_ctrls.perBankWrBursts::15               0                       # Per bank write bursts
testsys.mem_ctrls.numRdRetry                        0                       # Number of times read queue was full causing retry
testsys.mem_ctrls.numWrRetry                        0                       # Number of times write queue was full causing retry
testsys.mem_ctrls.totGap                            0                       # Total gap between requests
testsys.mem_ctrls.readPktSize::0                    0                       # Read request sizes (log2)
testsys.mem_ctrls.readPktSize::1                    0                       # Read request sizes (log2)
testsys.mem_ctrls.readPktSize::2                    0                       # Read request sizes (log2)
testsys.mem_ctrls.readPktSize::3                    0                       # Read request sizes (log2)
testsys.mem_ctrls.readPktSize::4                    0                       # Read request sizes (log2)
testsys.mem_ctrls.readPktSize::5                    0                       # Read request sizes (log2)
testsys.mem_ctrls.readPktSize::6                    0                       # Read request sizes (log2)
testsys.mem_ctrls.writePktSize::0                   0                       # Write request sizes (log2)
testsys.mem_ctrls.writePktSize::1                   0                       # Write request sizes (log2)
testsys.mem_ctrls.writePktSize::2                   0                       # Write request sizes (log2)
testsys.mem_ctrls.writePktSize::3                   0                       # Write request sizes (log2)
testsys.mem_ctrls.writePktSize::4                   0                       # Write request sizes (log2)
testsys.mem_ctrls.writePktSize::5                   0                       # Write request sizes (log2)
testsys.mem_ctrls.writePktSize::6                   0                       # Write request sizes (log2)
testsys.mem_ctrls.rdQLenPdf::0                      0                       # What read queue length does an incoming req see
testsys.mem_ctrls.rdQLenPdf::1                      0                       # What read queue length does an incoming req see
testsys.mem_ctrls.rdQLenPdf::2                      0                       # What read queue length does an incoming req see
testsys.mem_ctrls.rdQLenPdf::3                      0                       # What read queue length does an incoming req see
testsys.mem_ctrls.rdQLenPdf::4                      0                       # What read queue length does an incoming req see
testsys.mem_ctrls.rdQLenPdf::5                      0                       # What read queue length does an incoming req see
testsys.mem_ctrls.rdQLenPdf::6                      0                       # What read queue length does an incoming req see
testsys.mem_ctrls.rdQLenPdf::7                      0                       # What read queue length does an incoming req see
testsys.mem_ctrls.rdQLenPdf::8                      0                       # What read queue length does an incoming req see
testsys.mem_ctrls.rdQLenPdf::9                      0                       # What read queue length does an incoming req see
testsys.mem_ctrls.rdQLenPdf::10                     0                       # What read queue length does an incoming req see
testsys.mem_ctrls.rdQLenPdf::11                     0                       # What read queue length does an incoming req see
testsys.mem_ctrls.rdQLenPdf::12                     0                       # What read queue length does an incoming req see
testsys.mem_ctrls.rdQLenPdf::13                     0                       # What read queue length does an incoming req see
testsys.mem_ctrls.rdQLenPdf::14                     0                       # What read queue length does an incoming req see
testsys.mem_ctrls.rdQLenPdf::15                     0                       # What read queue length does an incoming req see
testsys.mem_ctrls.rdQLenPdf::16                     0                       # What read queue length does an incoming req see
testsys.mem_ctrls.rdQLenPdf::17                     0                       # What read queue length does an incoming req see
testsys.mem_ctrls.rdQLenPdf::18                     0                       # What read queue length does an incoming req see
testsys.mem_ctrls.rdQLenPdf::19                     0                       # What read queue length does an incoming req see
testsys.mem_ctrls.rdQLenPdf::20                     0                       # What read queue length does an incoming req see
testsys.mem_ctrls.rdQLenPdf::21                     0                       # What read queue length does an incoming req see
testsys.mem_ctrls.rdQLenPdf::22                     0                       # What read queue length does an incoming req see
testsys.mem_ctrls.rdQLenPdf::23                     0                       # What read queue length does an incoming req see
testsys.mem_ctrls.rdQLenPdf::24                     0                       # What read queue length does an incoming req see
testsys.mem_ctrls.rdQLenPdf::25                     0                       # What read queue length does an incoming req see
testsys.mem_ctrls.rdQLenPdf::26                     0                       # What read queue length does an incoming req see
testsys.mem_ctrls.rdQLenPdf::27                     0                       # What read queue length does an incoming req see
testsys.mem_ctrls.rdQLenPdf::28                     0                       # What read queue length does an incoming req see
testsys.mem_ctrls.rdQLenPdf::29                     0                       # What read queue length does an incoming req see
testsys.mem_ctrls.rdQLenPdf::30                     0                       # What read queue length does an incoming req see
testsys.mem_ctrls.rdQLenPdf::31                     0                       # What read queue length does an incoming req see
testsys.mem_ctrls.wrQLenPdf::0                      0                       # What write queue length does an incoming req see
testsys.mem_ctrls.wrQLenPdf::1                      0                       # What write queue length does an incoming req see
testsys.mem_ctrls.wrQLenPdf::2                      0                       # What write queue length does an incoming req see
testsys.mem_ctrls.wrQLenPdf::3                      0                       # What write queue length does an incoming req see
testsys.mem_ctrls.wrQLenPdf::4                      0                       # What write queue length does an incoming req see
testsys.mem_ctrls.wrQLenPdf::5                      0                       # What write queue length does an incoming req see
testsys.mem_ctrls.wrQLenPdf::6                      0                       # What write queue length does an incoming req see
testsys.mem_ctrls.wrQLenPdf::7                      0                       # What write queue length does an incoming req see
testsys.mem_ctrls.wrQLenPdf::8                      0                       # What write queue length does an incoming req see
testsys.mem_ctrls.wrQLenPdf::9                      0                       # What write queue length does an incoming req see
testsys.mem_ctrls.wrQLenPdf::10                     0                       # What write queue length does an incoming req see
testsys.mem_ctrls.wrQLenPdf::11                     0                       # What write queue length does an incoming req see
testsys.mem_ctrls.wrQLenPdf::12                     0                       # What write queue length does an incoming req see
testsys.mem_ctrls.wrQLenPdf::13                     0                       # What write queue length does an incoming req see
testsys.mem_ctrls.wrQLenPdf::14                     0                       # What write queue length does an incoming req see
testsys.mem_ctrls.wrQLenPdf::15                     0                       # What write queue length does an incoming req see
testsys.mem_ctrls.wrQLenPdf::16                     0                       # What write queue length does an incoming req see
testsys.mem_ctrls.wrQLenPdf::17                     0                       # What write queue length does an incoming req see
testsys.mem_ctrls.wrQLenPdf::18                     0                       # What write queue length does an incoming req see
testsys.mem_ctrls.wrQLenPdf::19                     0                       # What write queue length does an incoming req see
testsys.mem_ctrls.wrQLenPdf::20                     0                       # What write queue length does an incoming req see
testsys.mem_ctrls.wrQLenPdf::21                     0                       # What write queue length does an incoming req see
testsys.mem_ctrls.wrQLenPdf::22                     0                       # What write queue length does an incoming req see
testsys.mem_ctrls.wrQLenPdf::23                     0                       # What write queue length does an incoming req see
testsys.mem_ctrls.wrQLenPdf::24                     0                       # What write queue length does an incoming req see
testsys.mem_ctrls.wrQLenPdf::25                     0                       # What write queue length does an incoming req see
testsys.mem_ctrls.wrQLenPdf::26                     0                       # What write queue length does an incoming req see
testsys.mem_ctrls.wrQLenPdf::27                     0                       # What write queue length does an incoming req see
testsys.mem_ctrls.wrQLenPdf::28                     0                       # What write queue length does an incoming req see
testsys.mem_ctrls.wrQLenPdf::29                     0                       # What write queue length does an incoming req see
testsys.mem_ctrls.wrQLenPdf::30                     0                       # What write queue length does an incoming req see
testsys.mem_ctrls.wrQLenPdf::31                     0                       # What write queue length does an incoming req see
testsys.mem_ctrls.wrQLenPdf::32                     0                       # What write queue length does an incoming req see
testsys.mem_ctrls.wrQLenPdf::33                     0                       # What write queue length does an incoming req see
testsys.mem_ctrls.wrQLenPdf::34                     0                       # What write queue length does an incoming req see
testsys.mem_ctrls.wrQLenPdf::35                     0                       # What write queue length does an incoming req see
testsys.mem_ctrls.wrQLenPdf::36                     0                       # What write queue length does an incoming req see
testsys.mem_ctrls.wrQLenPdf::37                     0                       # What write queue length does an incoming req see
testsys.mem_ctrls.wrQLenPdf::38                     0                       # What write queue length does an incoming req see
testsys.mem_ctrls.wrQLenPdf::39                     0                       # What write queue length does an incoming req see
testsys.mem_ctrls.wrQLenPdf::40                     0                       # What write queue length does an incoming req see
testsys.mem_ctrls.wrQLenPdf::41                     0                       # What write queue length does an incoming req see
testsys.mem_ctrls.wrQLenPdf::42                     0                       # What write queue length does an incoming req see
testsys.mem_ctrls.wrQLenPdf::43                     0                       # What write queue length does an incoming req see
testsys.mem_ctrls.wrQLenPdf::44                     0                       # What write queue length does an incoming req see
testsys.mem_ctrls.wrQLenPdf::45                     0                       # What write queue length does an incoming req see
testsys.mem_ctrls.wrQLenPdf::46                     0                       # What write queue length does an incoming req see
testsys.mem_ctrls.wrQLenPdf::47                     0                       # What write queue length does an incoming req see
testsys.mem_ctrls.wrQLenPdf::48                     0                       # What write queue length does an incoming req see
testsys.mem_ctrls.wrQLenPdf::49                     0                       # What write queue length does an incoming req see
testsys.mem_ctrls.wrQLenPdf::50                     0                       # What write queue length does an incoming req see
testsys.mem_ctrls.wrQLenPdf::51                     0                       # What write queue length does an incoming req see
testsys.mem_ctrls.wrQLenPdf::52                     0                       # What write queue length does an incoming req see
testsys.mem_ctrls.wrQLenPdf::53                     0                       # What write queue length does an incoming req see
testsys.mem_ctrls.wrQLenPdf::54                     0                       # What write queue length does an incoming req see
testsys.mem_ctrls.wrQLenPdf::55                     0                       # What write queue length does an incoming req see
testsys.mem_ctrls.wrQLenPdf::56                     0                       # What write queue length does an incoming req see
testsys.mem_ctrls.wrQLenPdf::57                     0                       # What write queue length does an incoming req see
testsys.mem_ctrls.wrQLenPdf::58                     0                       # What write queue length does an incoming req see
testsys.mem_ctrls.wrQLenPdf::59                     0                       # What write queue length does an incoming req see
testsys.mem_ctrls.wrQLenPdf::60                     0                       # What write queue length does an incoming req see
testsys.mem_ctrls.wrQLenPdf::61                     0                       # What write queue length does an incoming req see
testsys.mem_ctrls.wrQLenPdf::62                     0                       # What write queue length does an incoming req see
testsys.mem_ctrls.wrQLenPdf::63                     0                       # What write queue length does an incoming req see
testsys.mem_ctrls.totQLat                           0                       # Total ticks spent queuing
testsys.mem_ctrls.totMemAccLat                      0                       # Total ticks spent from burst creation until serviced by the DRAM
testsys.mem_ctrls.totBusLat                         0                       # Total ticks spent in databus transfers
testsys.mem_ctrls.avgQLat                         nan                       # Average queueing delay per DRAM burst
testsys.mem_ctrls.avgBusLat                       nan                       # Average bus latency per DRAM burst
testsys.mem_ctrls.avgMemAccLat                    nan                       # Average memory access latency per DRAM burst
testsys.mem_ctrls.avgRdBW                        0.00                       # Average DRAM read bandwidth in MiByte/s
testsys.mem_ctrls.avgWrBW                        0.00                       # Average achieved write bandwidth in MiByte/s
testsys.mem_ctrls.avgRdBWSys                     0.00                       # Average system read bandwidth in MiByte/s
testsys.mem_ctrls.avgWrBWSys                     0.00                       # Average system write bandwidth in MiByte/s
testsys.mem_ctrls.peakBW                     12800.00                       # Theoretical peak bandwidth in MiByte/s
testsys.mem_ctrls.busUtil                        0.00                       # Data bus utilization in percentage
testsys.mem_ctrls.busUtilRead                    0.00                       # Data bus utilization in percentage for reads
testsys.mem_ctrls.busUtilWrite                   0.00                       # Data bus utilization in percentage for writes
testsys.mem_ctrls.avgRdQLen                      0.00                       # Average read queue length when enqueuing
testsys.mem_ctrls.avgWrQLen                      0.00                       # Average write queue length when enqueuing
testsys.mem_ctrls.readRowHits                       0                       # Number of row buffer hits during reads
testsys.mem_ctrls.writeRowHits                      0                       # Number of row buffer hits during writes
testsys.mem_ctrls.readRowHitRate                  nan                       # Row buffer hit rate for reads
testsys.mem_ctrls.writeRowHitRate                 nan                       # Row buffer hit rate for writes
testsys.mem_ctrls.avgGap                          nan                       # Average gap between requests
testsys.mem_ctrls.pageHitRate                     nan                       # Row buffer hit rate, read and write combined
testsys.mem_ctrls_0.actEnergy                       0                       # Energy for activate commands per rank (pJ)
testsys.mem_ctrls_0.preEnergy                       0                       # Energy for precharge commands per rank (pJ)
testsys.mem_ctrls_0.readEnergy                      0                       # Energy for read commands per rank (pJ)
testsys.mem_ctrls_0.writeEnergy                     0                       # Energy for write commands per rank (pJ)
testsys.mem_ctrls_0.refreshEnergy                   0                       # Energy for refresh commands per rank (pJ)
testsys.mem_ctrls_0.actBackEnergy                   0                       # Energy for active background per rank (pJ)
testsys.mem_ctrls_0.preBackEnergy        10203064715040                       # Energy for precharge background per rank (pJ)
testsys.mem_ctrls_0.actPowerDownEnergy              0                       # Energy for active power-down per rank (pJ)
testsys.mem_ctrls_0.prePowerDownEnergy              0                       # Energy for precharge power-down per rank (pJ)
testsys.mem_ctrls_0.selfRefreshEnergy               0                       # Energy for self refresh per rank (pJ)
testsys.mem_ctrls_0.totalEnergy          10203064715040                       # Total energy per rank (pJ)
testsys.mem_ctrls_0.averagePower                  384                       # Core power per rank (mW)
testsys.mem_ctrls_0.totalIdleTime                   0                       # Total Idle time Per DRAM Rank
testsys.mem_ctrls_0.memoryStateTime::IDLE 26570481028000                       # Time in different power states
testsys.mem_ctrls_0.memoryStateTime::REF            0                       # Time in different power states
testsys.mem_ctrls_0.memoryStateTime::SREF            0                       # Time in different power states
testsys.mem_ctrls_0.memoryStateTime::PRE_PDN            0                       # Time in different power states
testsys.mem_ctrls_0.memoryStateTime::ACT            0                       # Time in different power states
testsys.mem_ctrls_0.memoryStateTime::ACT_PDN            0                       # Time in different power states
testsys.mem_ctrls_1.actEnergy                       0                       # Energy for activate commands per rank (pJ)
testsys.mem_ctrls_1.preEnergy                       0                       # Energy for precharge commands per rank (pJ)
testsys.mem_ctrls_1.readEnergy                      0                       # Energy for read commands per rank (pJ)
testsys.mem_ctrls_1.writeEnergy                     0                       # Energy for write commands per rank (pJ)
testsys.mem_ctrls_1.refreshEnergy                   0                       # Energy for refresh commands per rank (pJ)
testsys.mem_ctrls_1.actBackEnergy                   0                       # Energy for active background per rank (pJ)
testsys.mem_ctrls_1.preBackEnergy        10203064715040                       # Energy for precharge background per rank (pJ)
testsys.mem_ctrls_1.actPowerDownEnergy              0                       # Energy for active power-down per rank (pJ)
testsys.mem_ctrls_1.prePowerDownEnergy              0                       # Energy for precharge power-down per rank (pJ)
testsys.mem_ctrls_1.selfRefreshEnergy               0                       # Energy for self refresh per rank (pJ)
testsys.mem_ctrls_1.totalEnergy          10203064715040                       # Total energy per rank (pJ)
testsys.mem_ctrls_1.averagePower                  384                       # Core power per rank (mW)
testsys.mem_ctrls_1.totalIdleTime                   0                       # Total Idle time Per DRAM Rank
testsys.mem_ctrls_1.memoryStateTime::IDLE 26570481028000                       # Time in different power states
testsys.mem_ctrls_1.memoryStateTime::REF            0                       # Time in different power states
testsys.mem_ctrls_1.memoryStateTime::SREF            0                       # Time in different power states
testsys.mem_ctrls_1.memoryStateTime::PRE_PDN            0                       # Time in different power states
testsys.mem_ctrls_1.memoryStateTime::ACT            0                       # Time in different power states
testsys.mem_ctrls_1.memoryStateTime::ACT_PDN            0                       # Time in different power states
testsys.realview.nvmem.pwrStateResidencyTicks::UNDEFINED 26570481028000                       # Cumulative time (in ticks) in various power states
testsys.realview.vram.pwrStateResidencyTicks::UNDEFINED 26570481028000                       # Cumulative time (in ticks) in various power states
testsys.pwrStateResidencyTicks::UNDEFINED 26570481028000                       # Cumulative time (in ticks) in various power states
testsys.bridge.pwrStateResidencyTicks::UNDEFINED 26570481028000                       # Cumulative time (in ticks) in various power states
testsys.cf0.dma_read_full_pages                     1                       # Number of full page size DMA reads (not PRD).
testsys.cf0.dma_read_bytes                      39936                       # Number of bytes transfered via DMA reads (not PRD).
testsys.cf0.dma_read_txs                           32                       # Number of DMA read transactions (not PRD).
testsys.cf0.dma_write_full_pages                    0                       # Number of full page size DMA writes.
testsys.cf0.dma_write_bytes                      7168                       # Number of bytes transfered via DMA writes.
testsys.cf0.dma_write_txs                           7                       # Number of DMA write transactions.
testsys.cpu_voltage_domain.voltage                  1                       # Voltage in Volts
testsys.cpu_clk_domain.clock                      500                       # Clock period in ticks
testsys.cpu.dstage2_mmu.stage2_tlb.walker.pwrStateResidencyTicks::UNDEFINED 26570481028000                       # Cumulative time (in ticks) in various power states
testsys.cpu.dstage2_mmu.stage2_tlb.walker.walks            0                       # Table walker walks requested
testsys.cpu.dstage2_mmu.stage2_tlb.walker.walkRequestOrigin_Requested::Data            0                       # Table walker requests started/completed, data/inst
testsys.cpu.dstage2_mmu.stage2_tlb.walker.walkRequestOrigin_Requested::Inst            0                       # Table walker requests started/completed, data/inst
testsys.cpu.dstage2_mmu.stage2_tlb.walker.walkRequestOrigin_Requested::total            0                       # Table walker requests started/completed, data/inst
testsys.cpu.dstage2_mmu.stage2_tlb.walker.walkRequestOrigin_Completed::Data            0                       # Table walker requests started/completed, data/inst
testsys.cpu.dstage2_mmu.stage2_tlb.walker.walkRequestOrigin_Completed::Inst            0                       # Table walker requests started/completed, data/inst
testsys.cpu.dstage2_mmu.stage2_tlb.walker.walkRequestOrigin_Completed::total            0                       # Table walker requests started/completed, data/inst
testsys.cpu.dstage2_mmu.stage2_tlb.walker.walkRequestOrigin::total            0                       # Table walker requests started/completed, data/inst
testsys.cpu.dstage2_mmu.stage2_tlb.inst_hits            0                       # ITB inst hits
testsys.cpu.dstage2_mmu.stage2_tlb.inst_misses            0                       # ITB inst misses
testsys.cpu.dstage2_mmu.stage2_tlb.read_hits            0                       # DTB read hits
testsys.cpu.dstage2_mmu.stage2_tlb.read_misses            0                       # DTB read misses
testsys.cpu.dstage2_mmu.stage2_tlb.write_hits            0                       # DTB write hits
testsys.cpu.dstage2_mmu.stage2_tlb.write_misses            0                       # DTB write misses
testsys.cpu.dstage2_mmu.stage2_tlb.flush_tlb            0                       # Number of times complete TLB was flushed
testsys.cpu.dstage2_mmu.stage2_tlb.flush_tlb_mva            0                       # Number of times TLB was flushed by MVA
testsys.cpu.dstage2_mmu.stage2_tlb.flush_tlb_mva_asid            0                       # Number of times TLB was flushed by MVA & ASID
testsys.cpu.dstage2_mmu.stage2_tlb.flush_tlb_asid            0                       # Number of times TLB was flushed by ASID
testsys.cpu.dstage2_mmu.stage2_tlb.flush_entries            0                       # Number of entries that have been flushed from TLB
testsys.cpu.dstage2_mmu.stage2_tlb.align_faults            0                       # Number of TLB faults due to alignment restrictions
testsys.cpu.dstage2_mmu.stage2_tlb.prefetch_faults            0                       # Number of TLB faults due to prefetch
testsys.cpu.dstage2_mmu.stage2_tlb.domain_faults            0                       # Number of TLB faults due to domain restrictions
testsys.cpu.dstage2_mmu.stage2_tlb.perms_faults            0                       # Number of TLB faults due to permissions restrictions
testsys.cpu.dstage2_mmu.stage2_tlb.read_accesses            0                       # DTB read accesses
testsys.cpu.dstage2_mmu.stage2_tlb.write_accesses            0                       # DTB write accesses
testsys.cpu.dstage2_mmu.stage2_tlb.inst_accesses            0                       # ITB inst accesses
testsys.cpu.dstage2_mmu.stage2_tlb.hits             0                       # DTB hits
testsys.cpu.dstage2_mmu.stage2_tlb.misses            0                       # DTB misses
testsys.cpu.dstage2_mmu.stage2_tlb.accesses            0                       # DTB accesses
testsys.cpu.dtb.walker.pwrStateResidencyTicks::UNDEFINED 26570481028000                       # Cumulative time (in ticks) in various power states
testsys.cpu.dtb.walker.walks                     2195                       # Table walker walks requested
testsys.cpu.dtb.walker.walksShort                2195                       # Table walker walks initiated with short descriptors
testsys.cpu.dtb.walker.walkWaitTime::samples         2195                       # Table walker wait (enqueue to first request) latency
testsys.cpu.dtb.walker.walkWaitTime::0           2195    100.00%    100.00% # Table walker wait (enqueue to first request) latency
testsys.cpu.dtb.walker.walkWaitTime::total         2195                       # Table walker wait (enqueue to first request) latency
testsys.cpu.dtb.walker.walkPageSizes::4K         1558     84.67%     84.67% # Table walker page sizes translated
testsys.cpu.dtb.walker.walkPageSizes::1M          282     15.33%    100.00% # Table walker page sizes translated
testsys.cpu.dtb.walker.walkPageSizes::total         1840                       # Table walker page sizes translated
testsys.cpu.dtb.walker.walkRequestOrigin_Requested::Data         2195                       # Table walker requests started/completed, data/inst
testsys.cpu.dtb.walker.walkRequestOrigin_Requested::Inst            0                       # Table walker requests started/completed, data/inst
testsys.cpu.dtb.walker.walkRequestOrigin_Requested::total         2195                       # Table walker requests started/completed, data/inst
testsys.cpu.dtb.walker.walkRequestOrigin_Completed::Data         1840                       # Table walker requests started/completed, data/inst
testsys.cpu.dtb.walker.walkRequestOrigin_Completed::Inst            0                       # Table walker requests started/completed, data/inst
testsys.cpu.dtb.walker.walkRequestOrigin_Completed::total         1840                       # Table walker requests started/completed, data/inst
testsys.cpu.dtb.walker.walkRequestOrigin::total         4035                       # Table walker requests started/completed, data/inst
testsys.cpu.dtb.inst_hits                           0                       # ITB inst hits
testsys.cpu.dtb.inst_misses                         0                       # ITB inst misses
testsys.cpu.dtb.read_hits                     2739093                       # DTB read hits
testsys.cpu.dtb.read_misses                      1881                       # DTB read misses
testsys.cpu.dtb.write_hits                    1792347                       # DTB write hits
testsys.cpu.dtb.write_misses                      314                       # DTB write misses
testsys.cpu.dtb.flush_tlb                           6                       # Number of times complete TLB was flushed
testsys.cpu.dtb.flush_tlb_mva                      87                       # Number of times TLB was flushed by MVA
testsys.cpu.dtb.flush_tlb_mva_asid                  0                       # Number of times TLB was flushed by MVA & ASID
testsys.cpu.dtb.flush_tlb_asid                      0                       # Number of times TLB was flushed by ASID
testsys.cpu.dtb.flush_entries                     445                       # Number of entries that have been flushed from TLB
testsys.cpu.dtb.align_faults                        0                       # Number of TLB faults due to alignment restrictions
testsys.cpu.dtb.prefetch_faults                    89                       # Number of TLB faults due to prefetch
testsys.cpu.dtb.domain_faults                       0                       # Number of TLB faults due to domain restrictions
testsys.cpu.dtb.perms_faults                       42                       # Number of TLB faults due to permissions restrictions
testsys.cpu.dtb.read_accesses                 2740974                       # DTB read accesses
testsys.cpu.dtb.write_accesses                1792661                       # DTB write accesses
testsys.cpu.dtb.inst_accesses                       0                       # ITB inst accesses
testsys.cpu.dtb.hits                          4531440                       # DTB hits
testsys.cpu.dtb.misses                           2195                       # DTB misses
testsys.cpu.dtb.accesses                      4533635                       # DTB accesses
testsys.cpu.istage2_mmu.stage2_tlb.walker.pwrStateResidencyTicks::UNDEFINED 26570481028000                       # Cumulative time (in ticks) in various power states
testsys.cpu.istage2_mmu.stage2_tlb.walker.walks            0                       # Table walker walks requested
testsys.cpu.istage2_mmu.stage2_tlb.walker.walkRequestOrigin_Requested::Data            0                       # Table walker requests started/completed, data/inst
testsys.cpu.istage2_mmu.stage2_tlb.walker.walkRequestOrigin_Requested::Inst            0                       # Table walker requests started/completed, data/inst
testsys.cpu.istage2_mmu.stage2_tlb.walker.walkRequestOrigin_Requested::total            0                       # Table walker requests started/completed, data/inst
testsys.cpu.istage2_mmu.stage2_tlb.walker.walkRequestOrigin_Completed::Data            0                       # Table walker requests started/completed, data/inst
testsys.cpu.istage2_mmu.stage2_tlb.walker.walkRequestOrigin_Completed::Inst            0                       # Table walker requests started/completed, data/inst
testsys.cpu.istage2_mmu.stage2_tlb.walker.walkRequestOrigin_Completed::total            0                       # Table walker requests started/completed, data/inst
testsys.cpu.istage2_mmu.stage2_tlb.walker.walkRequestOrigin::total            0                       # Table walker requests started/completed, data/inst
testsys.cpu.istage2_mmu.stage2_tlb.inst_hits            0                       # ITB inst hits
testsys.cpu.istage2_mmu.stage2_tlb.inst_misses            0                       # ITB inst misses
testsys.cpu.istage2_mmu.stage2_tlb.read_hits            0                       # DTB read hits
testsys.cpu.istage2_mmu.stage2_tlb.read_misses            0                       # DTB read misses
testsys.cpu.istage2_mmu.stage2_tlb.write_hits            0                       # DTB write hits
testsys.cpu.istage2_mmu.stage2_tlb.write_misses            0                       # DTB write misses
testsys.cpu.istage2_mmu.stage2_tlb.flush_tlb            0                       # Number of times complete TLB was flushed
testsys.cpu.istage2_mmu.stage2_tlb.flush_tlb_mva            0                       # Number of times TLB was flushed by MVA
testsys.cpu.istage2_mmu.stage2_tlb.flush_tlb_mva_asid            0                       # Number of times TLB was flushed by MVA & ASID
testsys.cpu.istage2_mmu.stage2_tlb.flush_tlb_asid            0                       # Number of times TLB was flushed by ASID
testsys.cpu.istage2_mmu.stage2_tlb.flush_entries            0                       # Number of entries that have been flushed from TLB
testsys.cpu.istage2_mmu.stage2_tlb.align_faults            0                       # Number of TLB faults due to alignment restrictions
testsys.cpu.istage2_mmu.stage2_tlb.prefetch_faults            0                       # Number of TLB faults due to prefetch
testsys.cpu.istage2_mmu.stage2_tlb.domain_faults            0                       # Number of TLB faults due to domain restrictions
testsys.cpu.istage2_mmu.stage2_tlb.perms_faults            0                       # Number of TLB faults due to permissions restrictions
testsys.cpu.istage2_mmu.stage2_tlb.read_accesses            0                       # DTB read accesses
testsys.cpu.istage2_mmu.stage2_tlb.write_accesses            0                       # DTB write accesses
testsys.cpu.istage2_mmu.stage2_tlb.inst_accesses            0                       # ITB inst accesses
testsys.cpu.istage2_mmu.stage2_tlb.hits             0                       # DTB hits
testsys.cpu.istage2_mmu.stage2_tlb.misses            0                       # DTB misses
testsys.cpu.istage2_mmu.stage2_tlb.accesses            0                       # DTB accesses
testsys.cpu.itb.walker.pwrStateResidencyTicks::UNDEFINED 26570481028000                       # Cumulative time (in ticks) in various power states
testsys.cpu.itb.walker.walks                      794                       # Table walker walks requested
testsys.cpu.itb.walker.walksShort                 794                       # Table walker walks initiated with short descriptors
testsys.cpu.itb.walker.walkWaitTime::samples          794                       # Table walker wait (enqueue to first request) latency
testsys.cpu.itb.walker.walkWaitTime::0            794    100.00%    100.00% # Table walker wait (enqueue to first request) latency
testsys.cpu.itb.walker.walkWaitTime::total          794                       # Table walker wait (enqueue to first request) latency
testsys.cpu.itb.walker.walkPageSizes::4K          472     93.28%     93.28% # Table walker page sizes translated
testsys.cpu.itb.walker.walkPageSizes::1M           34      6.72%    100.00% # Table walker page sizes translated
testsys.cpu.itb.walker.walkPageSizes::total          506                       # Table walker page sizes translated
testsys.cpu.itb.walker.walkRequestOrigin_Requested::Data            0                       # Table walker requests started/completed, data/inst
testsys.cpu.itb.walker.walkRequestOrigin_Requested::Inst          794                       # Table walker requests started/completed, data/inst
testsys.cpu.itb.walker.walkRequestOrigin_Requested::total          794                       # Table walker requests started/completed, data/inst
testsys.cpu.itb.walker.walkRequestOrigin_Completed::Data            0                       # Table walker requests started/completed, data/inst
testsys.cpu.itb.walker.walkRequestOrigin_Completed::Inst          506                       # Table walker requests started/completed, data/inst
testsys.cpu.itb.walker.walkRequestOrigin_Completed::total          506                       # Table walker requests started/completed, data/inst
testsys.cpu.itb.walker.walkRequestOrigin::total         1300                       # Table walker requests started/completed, data/inst
testsys.cpu.itb.inst_hits                    12436553                       # ITB inst hits
testsys.cpu.itb.inst_misses                       794                       # ITB inst misses
testsys.cpu.itb.read_hits                           0                       # DTB read hits
testsys.cpu.itb.read_misses                         0                       # DTB read misses
testsys.cpu.itb.write_hits                          0                       # DTB write hits
testsys.cpu.itb.write_misses                        0                       # DTB write misses
testsys.cpu.itb.flush_tlb                           6                       # Number of times complete TLB was flushed
testsys.cpu.itb.flush_tlb_mva                      87                       # Number of times TLB was flushed by MVA
testsys.cpu.itb.flush_tlb_mva_asid                  0                       # Number of times TLB was flushed by MVA & ASID
testsys.cpu.itb.flush_tlb_asid                      0                       # Number of times TLB was flushed by ASID
testsys.cpu.itb.flush_entries                     336                       # Number of entries that have been flushed from TLB
testsys.cpu.itb.align_faults                        0                       # Number of TLB faults due to alignment restrictions
testsys.cpu.itb.prefetch_faults                     0                       # Number of TLB faults due to prefetch
testsys.cpu.itb.domain_faults                       0                       # Number of TLB faults due to domain restrictions
testsys.cpu.itb.perms_faults                        0                       # Number of TLB faults due to permissions restrictions
testsys.cpu.itb.read_accesses                       0                       # DTB read accesses
testsys.cpu.itb.write_accesses                      0                       # DTB write accesses
testsys.cpu.itb.inst_accesses                12437347                       # ITB inst accesses
testsys.cpu.itb.hits                         12436553                       # DTB hits
testsys.cpu.itb.misses                            794                       # DTB misses
testsys.cpu.itb.accesses                     12437347                       # DTB accesses
testsys.cpu.numPwrStateTransitions                330                       # Number of power state transitions
testsys.cpu.pwrStateClkGateDist::samples          165                       # Distribution of time spent in the clock gated state
testsys.cpu.pwrStateClkGateDist::mean    143956551010.309082                       # Distribution of time spent in the clock gated state
testsys.cpu.pwrStateClkGateDist::stdev   265115175469.623901                       # Distribution of time spent in the clock gated state
testsys.cpu.pwrStateClkGateDist::underflows           77     46.67%     46.67% # Distribution of time spent in the clock gated state
testsys.cpu.pwrStateClkGateDist::1000-5e+10           35     21.21%     67.88% # Distribution of time spent in the clock gated state
testsys.cpu.pwrStateClkGateDist::5e+10-1e+11            6      3.64%     71.52% # Distribution of time spent in the clock gated state
testsys.cpu.pwrStateClkGateDist::1e+11-1.5e+11            6      3.64%     75.15% # Distribution of time spent in the clock gated state
testsys.cpu.pwrStateClkGateDist::1.5e+11-2e+11            2      1.21%     76.36% # Distribution of time spent in the clock gated state
testsys.cpu.pwrStateClkGateDist::2e+11-2.5e+11           11      6.67%     83.03% # Distribution of time spent in the clock gated state
testsys.cpu.pwrStateClkGateDist::2.5e+11-3e+11            1      0.61%     83.64% # Distribution of time spent in the clock gated state
testsys.cpu.pwrStateClkGateDist::3e+11-3.5e+11            1      0.61%     84.24% # Distribution of time spent in the clock gated state
testsys.cpu.pwrStateClkGateDist::3.5e+11-4e+11            1      0.61%     84.85% # Distribution of time spent in the clock gated state
testsys.cpu.pwrStateClkGateDist::4e+11-4.5e+11            1      0.61%     85.45% # Distribution of time spent in the clock gated state
testsys.cpu.pwrStateClkGateDist::4.5e+11-5e+11            1      0.61%     86.06% # Distribution of time spent in the clock gated state
testsys.cpu.pwrStateClkGateDist::5e+11-5.5e+11            3      1.82%     87.88% # Distribution of time spent in the clock gated state
testsys.cpu.pwrStateClkGateDist::5.5e+11-6e+11            1      0.61%     88.48% # Distribution of time spent in the clock gated state
testsys.cpu.pwrStateClkGateDist::6e+11-6.5e+11            3      1.82%     90.30% # Distribution of time spent in the clock gated state
testsys.cpu.pwrStateClkGateDist::6.5e+11-7e+11            1      0.61%     90.91% # Distribution of time spent in the clock gated state
testsys.cpu.pwrStateClkGateDist::7e+11-7.5e+11            4      2.42%     93.33% # Distribution of time spent in the clock gated state
testsys.cpu.pwrStateClkGateDist::7.5e+11-8e+11            6      3.64%     96.97% # Distribution of time spent in the clock gated state
testsys.cpu.pwrStateClkGateDist::9.5e+11-1e+12            5      3.03%    100.00% # Distribution of time spent in the clock gated state
testsys.cpu.pwrStateClkGateDist::min_value          501                       # Distribution of time spent in the clock gated state
testsys.cpu.pwrStateClkGateDist::max_value 999980807612                       # Distribution of time spent in the clock gated state
testsys.cpu.pwrStateClkGateDist::total            165                       # Distribution of time spent in the clock gated state
testsys.cpu.pwrStateResidencyTicks::ON     7574161798                       # Cumulative time (in ticks) in various power states
testsys.cpu.pwrStateResidencyTicks::CLK_GATED 23752830916701                       # Cumulative time (in ticks) in various power states
testsys.cpu.numCycles                     47520359808                       # number of cpu cycles simulated
testsys.cpu.numWorkItemsStarted                     0                       # number of work items this cpu started
testsys.cpu.numWorkItemsCompleted                   0                       # number of work items this cpu completed
testsys.cpu.kern.inst.arm                           0                       # number of arm instructions executed
testsys.cpu.kern.inst.quiesce                     165                       # number of quiesce instructions executed
testsys.cpu.committedInsts                   11440553                       # Number of instructions committed
testsys.cpu.committedOps                     13701070                       # Number of ops (including micro ops) committed
testsys.cpu.num_int_alu_accesses             12302995                       # Number of integer alu accesses
testsys.cpu.num_fp_alu_accesses                  1422                       # Number of float alu accesses
testsys.cpu.num_vec_alu_accesses                    0                       # Number of vector alu accesses
testsys.cpu.num_func_calls                    1403003                       # number of times a function call or return occured
testsys.cpu.num_conditional_control_insts      1260804                       # number of instructions that are conditional controls
testsys.cpu.num_int_insts                    12302995                       # number of integer instructions
testsys.cpu.num_fp_insts                         1422                       # number of float instructions
testsys.cpu.num_vec_insts                           0                       # number of vector instructions
testsys.cpu.num_int_register_reads           23641992                       # number of times the integer registers were read
testsys.cpu.num_int_register_writes           8921286                       # number of times the integer registers were written
testsys.cpu.num_fp_register_reads                1058                       # number of times the floating registers were read
testsys.cpu.num_fp_register_writes                393                       # number of times the floating registers were written
testsys.cpu.num_vec_register_reads                  0                       # number of times the vector registers were read
testsys.cpu.num_vec_register_writes                 0                       # number of times the vector registers were written
testsys.cpu.num_cc_register_reads            41819519                       # number of times the CC registers were read
testsys.cpu.num_cc_register_writes            4624912                       # number of times the CC registers were written
testsys.cpu.num_mem_refs                      4589994                       # number of memory refs
testsys.cpu.num_load_insts                    2761699                       # Number of load instructions
testsys.cpu.num_store_insts                   1828295                       # Number of store instructions
testsys.cpu.num_idle_cycles              47505661998.348969                       # Number of idle cycles
testsys.cpu.num_busy_cycles              14697809.651033                       # Number of busy cycles
testsys.cpu.not_idle_fraction                0.000309                       # Percentage of non-idle cycles
testsys.cpu.idle_fraction                    0.999691                       # Percentage of idle cycles
testsys.cpu.Branches                          2710205                       # Number of branches fetched
testsys.cpu.op_class::No_OpClass                   31      0.00%      0.00% # Class of executed instruction
testsys.cpu.op_class::IntAlu                  9398504     67.10%     67.10% # Class of executed instruction
testsys.cpu.op_class::IntMult                   17959      0.13%     67.23% # Class of executed instruction
testsys.cpu.op_class::IntDiv                        0      0.00%     67.23% # Class of executed instruction
testsys.cpu.op_class::FloatAdd                      0      0.00%     67.23% # Class of executed instruction
testsys.cpu.op_class::FloatCmp                      0      0.00%     67.23% # Class of executed instruction
testsys.cpu.op_class::FloatCvt                      0      0.00%     67.23% # Class of executed instruction
testsys.cpu.op_class::FloatMult                     0      0.00%     67.23% # Class of executed instruction
testsys.cpu.op_class::FloatMultAcc                  0      0.00%     67.23% # Class of executed instruction
testsys.cpu.op_class::FloatDiv                      0      0.00%     67.23% # Class of executed instruction
testsys.cpu.op_class::FloatMisc                     0      0.00%     67.23% # Class of executed instruction
testsys.cpu.op_class::FloatSqrt                     0      0.00%     67.23% # Class of executed instruction
testsys.cpu.op_class::SimdAdd                       0      0.00%     67.23% # Class of executed instruction
testsys.cpu.op_class::SimdAddAcc                    0      0.00%     67.23% # Class of executed instruction
testsys.cpu.op_class::SimdAlu                       0      0.00%     67.23% # Class of executed instruction
testsys.cpu.op_class::SimdCmp                       0      0.00%     67.23% # Class of executed instruction
testsys.cpu.op_class::SimdCvt                       0      0.00%     67.23% # Class of executed instruction
testsys.cpu.op_class::SimdMisc                      0      0.00%     67.23% # Class of executed instruction
testsys.cpu.op_class::SimdMult                      0      0.00%     67.23% # Class of executed instruction
testsys.cpu.op_class::SimdMultAcc                   0      0.00%     67.23% # Class of executed instruction
testsys.cpu.op_class::SimdShift                     0      0.00%     67.23% # Class of executed instruction
testsys.cpu.op_class::SimdShiftAcc                  0      0.00%     67.23% # Class of executed instruction
testsys.cpu.op_class::SimdSqrt                      0      0.00%     67.23% # Class of executed instruction
testsys.cpu.op_class::SimdFloatAdd                  2      0.00%     67.23% # Class of executed instruction
testsys.cpu.op_class::SimdFloatAlu                  0      0.00%     67.23% # Class of executed instruction
testsys.cpu.op_class::SimdFloatCmp                  2      0.00%     67.23% # Class of executed instruction
testsys.cpu.op_class::SimdFloatCvt                  5      0.00%     67.23% # Class of executed instruction
testsys.cpu.op_class::SimdFloatDiv                  0      0.00%     67.23% # Class of executed instruction
testsys.cpu.op_class::SimdFloatMisc               548      0.00%     67.23% # Class of executed instruction
testsys.cpu.op_class::SimdFloatMult                 0      0.00%     67.23% # Class of executed instruction
testsys.cpu.op_class::SimdFloatMultAcc              0      0.00%     67.23% # Class of executed instruction
testsys.cpu.op_class::SimdFloatSqrt                 0      0.00%     67.23% # Class of executed instruction
testsys.cpu.op_class::MemRead                 2761328     19.71%     86.94% # Class of executed instruction
testsys.cpu.op_class::MemWrite                1827262     13.05%     99.99% # Class of executed instruction
testsys.cpu.op_class::FloatMemRead                371      0.00%     99.99% # Class of executed instruction
testsys.cpu.op_class::FloatMemWrite              1033      0.01%    100.00% # Class of executed instruction
testsys.cpu.op_class::IprAccess                     0      0.00%    100.00% # Class of executed instruction
testsys.cpu.op_class::InstPrefetch                  0      0.00%    100.00% # Class of executed instruction
testsys.cpu.op_class::total                  14007045                       # Class of executed instruction
testsys.iobridge.pwrStateResidencyTicks::UNDEFINED 26570481028000                       # Cumulative time (in ticks) in various power states
testsys.iobus.pwrStateResidencyTicks::UNDEFINED 26570481028000                       # Cumulative time (in ticks) in various power states
testsys.iobus.trans_dist::ReadReq                2256                       # Transaction distribution
testsys.iobus.trans_dist::ReadResp               2256                       # Transaction distribution
testsys.iobus.trans_dist::WriteReq               1405                       # Transaction distribution
testsys.iobus.trans_dist::WriteResp              1405                       # Transaction distribution
testsys.iobus.pkt_count_testsys.bridge.master::testsys.realview.uart.pio         1810                       # Packet count per connected master and slave (bytes)
testsys.iobus.pkt_count_testsys.bridge.master::testsys.realview.ide.pio         1768                       # Packet count per connected master and slave (bytes)
testsys.iobus.pkt_count_testsys.bridge.master::testsys.realview.ethernet.pio         2130                       # Packet count per connected master and slave (bytes)
testsys.iobus.pkt_count_testsys.bridge.master::total         5708                       # Packet count per connected master and slave (bytes)
testsys.iobus.pkt_count_testsys.realview.ide.dma::testsys.iobridge.slave         1550                       # Packet count per connected master and slave (bytes)
testsys.iobus.pkt_count_testsys.realview.ide.dma::total         1550                       # Packet count per connected master and slave (bytes)
testsys.iobus.pkt_count_testsys.realview.ethernet.dma::testsys.iobridge.slave           64                       # Packet count per connected master and slave (bytes)
testsys.iobus.pkt_count_testsys.realview.ethernet.dma::total           64                       # Packet count per connected master and slave (bytes)
testsys.iobus.pkt_count::total                   7322                       # Packet count per connected master and slave (bytes)
testsys.iobus.pkt_size_testsys.bridge.master::testsys.realview.uart.pio         1810                       # Cumulative packet size per connected master and slave (bytes)
testsys.iobus.pkt_size_testsys.bridge.master::testsys.realview.ide.pio          986                       # Cumulative packet size per connected master and slave (bytes)
testsys.iobus.pkt_size_testsys.bridge.master::testsys.realview.ethernet.pio         4260                       # Cumulative packet size per connected master and slave (bytes)
testsys.iobus.pkt_size_testsys.bridge.master::total         7056                       # Cumulative packet size per connected master and slave (bytes)
testsys.iobus.pkt_size_testsys.realview.ide.dma::testsys.iobridge.slave        47416                       # Cumulative packet size per connected master and slave (bytes)
testsys.iobus.pkt_size_testsys.realview.ide.dma::total        47416                       # Cumulative packet size per connected master and slave (bytes)
testsys.iobus.pkt_size_testsys.realview.ethernet.dma::testsys.iobridge.slave          904                       # Cumulative packet size per connected master and slave (bytes)
testsys.iobus.pkt_size_testsys.realview.ethernet.dma::total          904                       # Cumulative packet size per connected master and slave (bytes)
testsys.iobus.pkt_size::total                   55376                       # Cumulative packet size per connected master and slave (bytes)
testsys.membus.snoop_filter.tot_requests            0                       # Total number of requests made to the snoop filter.
testsys.membus.snoop_filter.hit_single_requests            0                       # Number of requests hitting in the snoop filter with a single holder of the requested data.
testsys.membus.snoop_filter.hit_multi_requests            0                       # Number of requests hitting in the snoop filter with multiple (>1) holders of the requested data.
testsys.membus.snoop_filter.tot_snoops              0                       # Total number of snoops made to the snoop filter.
testsys.membus.snoop_filter.hit_single_snoops            0                       # Number of snoops hitting in the snoop filter with a single holder of the requested data.
testsys.membus.snoop_filter.hit_multi_snoops            0                       # Number of snoops hitting in the snoop filter with multiple (>1) holders of the requested data.
testsys.membus.pwrStateResidencyTicks::UNDEFINED 26570481028000                       # Cumulative time (in ticks) in various power states
testsys.membus.trans_dist::ReadReq           15140825                       # Transaction distribution
testsys.membus.trans_dist::ReadResp          15162891                       # Transaction distribution
testsys.membus.trans_dist::WriteReq           1770894                       # Transaction distribution
testsys.membus.trans_dist::WriteResp          1770894                       # Transaction distribution
testsys.membus.trans_dist::SoftPFReq            21221                       # Transaction distribution
testsys.membus.trans_dist::SoftPFResp           21221                       # Transaction distribution
testsys.membus.trans_dist::LoadLockedReq        22066                       # Transaction distribution
testsys.membus.trans_dist::StoreCondReq         21752                       # Transaction distribution
testsys.membus.trans_dist::StoreCondResp        21752                       # Transaction distribution
testsys.membus.pkt_count_testsys.iobridge.master::testsys.mem_ctrls.port         1614                       # Packet count per connected master and slave (bytes)
testsys.membus.pkt_count_testsys.iobridge.master::total         1614                       # Packet count per connected master and slave (bytes)
testsys.membus.pkt_count_testsys.cpu.icache_port::testsys.mem_ctrls.port     24874118                       # Packet count per connected master and slave (bytes)
testsys.membus.pkt_count_testsys.cpu.icache_port::total     24874118                       # Packet count per connected master and slave (bytes)
testsys.membus.pkt_count_testsys.cpu.dcache_port::testsys.bridge.slave         5708                       # Packet count per connected master and slave (bytes)
testsys.membus.pkt_count_testsys.cpu.dcache_port::testsys.realview.gic.pio         1180                       # Packet count per connected master and slave (bytes)
testsys.membus.pkt_count_testsys.cpu.dcache_port::testsys.mem_ctrls.port      9059588                       # Packet count per connected master and slave (bytes)
testsys.membus.pkt_count_testsys.cpu.dcache_port::total      9066476                       # Packet count per connected master and slave (bytes)
testsys.membus.pkt_count_testsys.cpu.itb.walker.dma::testsys.mem_ctrls.port         3108                       # Packet count per connected master and slave (bytes)
testsys.membus.pkt_count_testsys.cpu.itb.walker.dma::total         3108                       # Packet count per connected master and slave (bytes)
testsys.membus.pkt_count_testsys.cpu.dtb.walker.dma::testsys.mem_ctrls.port         8200                       # Packet count per connected master and slave (bytes)
testsys.membus.pkt_count_testsys.cpu.dtb.walker.dma::total         8200                       # Packet count per connected master and slave (bytes)
testsys.membus.pkt_count::total              33953516                       # Packet count per connected master and slave (bytes)
testsys.membus.pkt_size_testsys.iobridge.master::testsys.mem_ctrls.port        48320                       # Cumulative packet size per connected master and slave (bytes)
testsys.membus.pkt_size_testsys.iobridge.master::total        48320                       # Cumulative packet size per connected master and slave (bytes)
testsys.membus.pkt_size_testsys.cpu.icache_port::testsys.mem_ctrls.port     49748236                       # Cumulative packet size per connected master and slave (bytes)
testsys.membus.pkt_size_testsys.cpu.icache_port::total     49748236                       # Cumulative packet size per connected master and slave (bytes)
testsys.membus.pkt_size_testsys.cpu.dcache_port::testsys.bridge.slave         7056                       # Cumulative packet size per connected master and slave (bytes)
testsys.membus.pkt_size_testsys.cpu.dcache_port::testsys.realview.gic.pio         2360                       # Cumulative packet size per connected master and slave (bytes)
testsys.membus.pkt_size_testsys.cpu.dcache_port::testsys.mem_ctrls.port     19958822                       # Cumulative packet size per connected master and slave (bytes)
testsys.membus.pkt_size_testsys.cpu.dcache_port::total     19968238                       # Cumulative packet size per connected master and slave (bytes)
testsys.membus.pkt_size_testsys.cpu.itb.walker.dma::testsys.mem_ctrls.port         6216                       # Cumulative packet size per connected master and slave (bytes)
testsys.membus.pkt_size_testsys.cpu.itb.walker.dma::total         6216                       # Cumulative packet size per connected master and slave (bytes)
testsys.membus.pkt_size_testsys.cpu.dtb.walker.dma::testsys.mem_ctrls.port        16400                       # Cumulative packet size per connected master and slave (bytes)
testsys.membus.pkt_size_testsys.cpu.dtb.walker.dma::total        16400                       # Cumulative packet size per connected master and slave (bytes)
testsys.membus.pkt_size::total               69787410                       # Cumulative packet size per connected master and slave (bytes)
testsys.membus.snoops                               0                       # Total snoops (count)
testsys.membus.snoopTraffic                         0                       # Total snoop traffic (bytes)
testsys.membus.snoop_fanout::samples         16976758                       # Request fanout histogram
testsys.membus.snoop_fanout::mean                   0                       # Request fanout histogram
testsys.membus.snoop_fanout::stdev                  0                       # Request fanout histogram
testsys.membus.snoop_fanout::underflows             0      0.00%      0.00% # Request fanout histogram
testsys.membus.snoop_fanout::0               16976758    100.00%    100.00% # Request fanout histogram
testsys.membus.snoop_fanout::1                      0      0.00%    100.00% # Request fanout histogram
testsys.membus.snoop_fanout::overflows              0      0.00%    100.00% # Request fanout histogram
testsys.membus.snoop_fanout::min_value              0                       # Request fanout histogram
testsys.membus.snoop_fanout::max_value              0                       # Request fanout histogram
testsys.membus.snoop_fanout::total           16976758                       # Request fanout histogram
testsys.membus.badaddr_responder.pwrStateResidencyTicks::UNDEFINED 26570481028000                       # Cumulative time (in ticks) in various power states
testsys.realview.aaci_fake.pwrStateResidencyTicks::UNDEFINED 26570481028000                       # Cumulative time (in ticks) in various power states
testsys.realview.pci_host.pwrStateResidencyTicks::UNDEFINED 26570481028000                       # Cumulative time (in ticks) in various power states
testsys.realview.cf_ctrl.pwrStateResidencyTicks::UNDEFINED 26570481028000                       # Cumulative time (in ticks) in various power states
testsys.realview.gic.pwrStateResidencyTicks::UNDEFINED 26570481028000                       # Cumulative time (in ticks) in various power states
testsys.realview.clcd.pwrStateResidencyTicks::UNDEFINED 26570481028000                       # Cumulative time (in ticks) in various power states
testsys.realview.realview_io.pwrStateResidencyTicks::UNDEFINED 26570481028000                       # Cumulative time (in ticks) in various power states
testsys.realview.dcc.osc_cpu.clock              16667                       # Clock period in ticks
testsys.realview.dcc.osc_ddr.clock              25000                       # Clock period in ticks
testsys.realview.dcc.osc_hsbm.clock             25000                       # Clock period in ticks
testsys.realview.dcc.osc_pxl.clock              42105                       # Clock period in ticks
testsys.realview.dcc.osc_smb.clock              20000                       # Clock period in ticks
testsys.realview.dcc.osc_sys.clock              16667                       # Clock period in ticks
testsys.realview.energy_ctrl.pwrStateResidencyTicks::UNDEFINED 26570481028000                       # Cumulative time (in ticks) in various power states
testsys.realview.ethernet.pwrStateResidencyTicks::UNDEFINED 26570481028000                       # Cumulative time (in ticks) in various power states
testsys.realview.ethernet.txBytes                 648                       # Bytes Transmitted
testsys.realview.ethernet.txPackets                 8                       # Number of Packets Transmitted
testsys.realview.ethernet.txIpChecksums             0                       # Number of tx IP Checksums done by device
testsys.realview.ethernet.txTcpChecksums            0                       # Number of tx TCP Checksums done by device
testsys.realview.ethernet.txUdpChecksums            0                       # Number of tx UDP Checksums done by device
testsys.realview.ethernet.descDMAReads              0                       # Number of descriptors the device read w/ DMA
testsys.realview.ethernet.descDMAWrites             0                       # Number of descriptors the device wrote w/ DMA
testsys.realview.ethernet.descDmaReadBytes            0                       # number of descriptor bytes read w/ DMA
testsys.realview.ethernet.descDmaWriteBytes            0                       # number of descriptor bytes write w/ DMA
testsys.realview.ethernet.totBandwidth            218                       # Total Bandwidth (bits/s)
testsys.realview.ethernet.totPackets                8                       # Total Packets
testsys.realview.ethernet.totBytes                648                       # Total Bytes
testsys.realview.ethernet.totPPS                    0                       # Total Tranmission Rate (packets/s)
testsys.realview.ethernet.txBandwidth             218                       # Transmit Bandwidth (bits/s)
testsys.realview.ethernet.txPPS                     0                       # Packet Tranmission Rate (packets/s)
testsys.realview.ethernet.postedSwi                 0                       # number of software interrupts posted to CPU
testsys.realview.ethernet.coalescedSwi              0                       # average number of Swi's coalesced into each post
testsys.realview.ethernet.totalSwi                  0                       # total number of Swi written to ISR
testsys.realview.ethernet.postedRxIdle              0                       # number of rxIdle interrupts posted to CPU
testsys.realview.ethernet.coalescedRxIdle            0                       # average number of RxIdle's coalesced into each post
testsys.realview.ethernet.totalRxIdle               0                       # total number of RxIdle written to ISR
testsys.realview.ethernet.postedRxOk                0                       # number of RxOk interrupts posted to CPU
testsys.realview.ethernet.coalescedRxOk             0                       # average number of RxOk's coalesced into each post
testsys.realview.ethernet.totalRxOk                 0                       # total number of RxOk written to ISR
testsys.realview.ethernet.postedRxDesc              0                       # number of RxDesc interrupts posted to CPU
testsys.realview.ethernet.coalescedRxDesc            0                       # average number of RxDesc's coalesced into each post
testsys.realview.ethernet.totalRxDesc               0                       # total number of RxDesc written to ISR
testsys.realview.ethernet.postedTxOk                0                       # number of TxOk interrupts posted to CPU
testsys.realview.ethernet.coalescedTxOk             0                       # average number of TxOk's coalesced into each post
testsys.realview.ethernet.totalTxOk                 0                       # total number of TxOk written to ISR
testsys.realview.ethernet.postedTxIdle              0                       # number of TxIdle interrupts posted to CPU
testsys.realview.ethernet.coalescedTxIdle            0                       # average number of TxIdle's coalesced into each post
testsys.realview.ethernet.totalTxIdle               0                       # total number of TxIdle written to ISR
testsys.realview.ethernet.postedTxDesc              0                       # number of TxDesc interrupts posted to CPU
testsys.realview.ethernet.coalescedTxDesc            0                       # average number of TxDesc's coalesced into each post
testsys.realview.ethernet.totalTxDesc               0                       # total number of TxDesc written to ISR
testsys.realview.ethernet.postedRxOrn               0                       # number of RxOrn posted to CPU
testsys.realview.ethernet.coalescedRxOrn            0                       # average number of RxOrn's coalesced into each post
testsys.realview.ethernet.totalRxOrn                0                       # total number of RxOrn written to ISR
testsys.realview.ethernet.coalescedTotal            0                       # average number of interrupts coalesced into each post
testsys.realview.ethernet.postedInterrupts           28                       # number of posts to CPU
testsys.realview.ethernet.droppedPackets            0                       # number of packets dropped
testsys.realview.hdlcd.pwrStateResidencyTicks::UNDEFINED 26570481028000                       # Cumulative time (in ticks) in various power states
testsys.realview.ide.pwrStateResidencyTicks::UNDEFINED 26570481028000                       # Cumulative time (in ticks) in various power states
testsys.realview.kmi0.pwrStateResidencyTicks::UNDEFINED 26570481028000                       # Cumulative time (in ticks) in various power states
testsys.realview.kmi1.pwrStateResidencyTicks::UNDEFINED 26570481028000                       # Cumulative time (in ticks) in various power states
testsys.realview.l2x0_fake.pwrStateResidencyTicks::UNDEFINED 26570481028000                       # Cumulative time (in ticks) in various power states
testsys.realview.lan_fake.pwrStateResidencyTicks::UNDEFINED 26570481028000                       # Cumulative time (in ticks) in various power states
testsys.realview.local_cpu_timer.pwrStateResidencyTicks::UNDEFINED 26570481028000                       # Cumulative time (in ticks) in various power states
testsys.realview.mcc.osc_clcd.clock             42105                       # Clock period in ticks
testsys.realview.mcc.osc_mcc.clock              20000                       # Clock period in ticks
testsys.realview.mcc.osc_peripheral.clock        41667                       # Clock period in ticks
testsys.realview.mcc.osc_system_bus.clock        41667                       # Clock period in ticks
testsys.realview.mmc_fake.pwrStateResidencyTicks::UNDEFINED 26570481028000                       # Cumulative time (in ticks) in various power states
testsys.realview.rtc.pwrStateResidencyTicks::UNDEFINED 26570481028000                       # Cumulative time (in ticks) in various power states
testsys.realview.sensordev.pwrStateResidencyTicks::UNDEFINED 26570481028000                       # Cumulative time (in ticks) in various power states
testsys.realview.sp810_fake.pwrStateResidencyTicks::UNDEFINED 26570481028000                       # Cumulative time (in ticks) in various power states
testsys.realview.timer0.pwrStateResidencyTicks::UNDEFINED 26570481028000                       # Cumulative time (in ticks) in various power states
testsys.realview.timer1.pwrStateResidencyTicks::UNDEFINED 26570481028000                       # Cumulative time (in ticks) in various power states
testsys.realview.uart.pwrStateResidencyTicks::UNDEFINED 26570481028000                       # Cumulative time (in ticks) in various power states
testsys.realview.uart1_fake.pwrStateResidencyTicks::UNDEFINED 26570481028000                       # Cumulative time (in ticks) in various power states
testsys.realview.uart2_fake.pwrStateResidencyTicks::UNDEFINED 26570481028000                       # Cumulative time (in ticks) in various power states
testsys.realview.uart3_fake.pwrStateResidencyTicks::UNDEFINED 26570481028000                       # Cumulative time (in ticks) in various power states
testsys.realview.usb_fake.pwrStateResidencyTicks::UNDEFINED 26570481028000                       # Cumulative time (in ticks) in various power states
testsys.realview.vgic.pwrStateResidencyTicks::UNDEFINED 26570481028000                       # Cumulative time (in ticks) in various power states
testsys.realview.watchdog_fake.pwrStateResidencyTicks::UNDEFINED 26570481028000                       # Cumulative time (in ticks) in various power states

---------- End Simulation Statistics   ----------
